<configuration>
    <input>
        <net-file value="intersection.net.xml"/>
        <route-files value="traffic.rou.xml"/>
    </input>
    <time>
        <begin value="0"/>
    </time>
    <report>
        <verbose value="true"/>
        <no-step-log value="true"/>
    </report>
</configuration>
