<routes>
    <vType id="car" accel="0.8" decel="4.5" sigma="0.5" length="5" minGap="2.5" maxSpeed="16.67" guiShape="passenger"/>
    <vehicle id="0" type="car" depart="0">
        <route edges="F3F2 F2E2 E2E1 E1E4"/>
    </vehicle>
    <vehicle id="1" type="car" depart="1">
        <route edges="B1B2 B2C2 C2D2 D2E2"/>
    </vehicle>
    <vehicle id="2" type="car" depart="2">
        <route edges="F1F2 F2E2 E2D2 D2C2 C2B2 B2B1 B1B4"/>
    </vehicle>
    <vehicle id="3" type="car" depart="3">
        <route edges="A1B3 B3B2 B2C2 C2D2 D2E2 E2F2 F2F1"/>
    </vehicle>
    <vehicle id="4" type="car" depart="4">
        <route edges="C3B3 B3B2 B2A1 A1B3 B3C3 C3D3 D3D4"/>
    </vehicle>
    <vehicle id="5" type="car" depart="5">
        <route edges="B2A1 A1B1 B1C1 C1D1 D1D2 D2C2"/>
    </vehicle>
    <vehicle id="6" type="car" depart="6">
        <route edges="E3E2 E2F2 F2F1"/>
    </vehicle>
    <vehicle id="7" type="car" depart="7">
        <route edges="B2C2 C2D2 D2D1 D1C1 C1C2 C2B2"/>
    </vehicle>
    <vehicle id="8" type="car" depart="8">
        <route edges="E1E2 E2D2 D2C2 C2B2 B2A1 A1B4 B4C4 C4C1"/>
    </vehicle>
    <vehicle id="9" type="car" depart="9">
        <route edges="E2E1 E1D1 D1C1 C1B1 B1A1 A1B4"/>
    </vehicle>
    <vehicle id="10" type="car" depart="10">
        <route edges="F1F2 F2E2 E2E3"/>
    </vehicle>
    <vehicle id="11" type="car" depart="11">
        <route edges="C2C1 C1B1 B1A1 A1B3 B3C3 C3D3 D3E3 E3E4"/>
    </vehicle>
    <vehicle id="12" type="car" depart="12">
        <route edges="C4C1 C1B1 B1A1 A1B3 B3B4"/>
    </vehicle>
    <vehicle id="13" type="car" depart="13">
        <route edges="E2E3 E3D3 D3C3"/>
    </vehicle>
    <vehicle id="14" type="car" depart="14">
        <route edges="F4E4 E4D4 D4C4 C4B4 B4B3 B3C3"/>
    </vehicle>
    <vehicle id="15" type="car" depart="15">
        <route edges="A1B1 B1B2 B2C2 C2C3"/>
    </vehicle>
    <vehicle id="16" type="car" depart="16">
        <route edges="F2F3 F3F4 F4E4"/>
    </vehicle>
    <vehicle id="17" type="car" depart="17">
        <route edges="E1F1 F1F2 F2E2 E2D2 D2C2 C2C3"/>
    </vehicle>
    <vehicle id="18" type="car" depart="18">
        <route edges="D3D4 D4C4 C4C1"/>
    </vehicle>
    <vehicle id="19" type="car" depart="19">
        <route edges="F1F2 F2E2 E2D2 D2C2 C2C1 C1D1 D1D2"/>
    </vehicle>
    <vehicle id="20" type="car" depart="20">
        <route edges="C4D4 D4D3 D3C3 C3C4 C4C1"/>
    </vehicle>
    <vehicle id="21" type="car" depart="21">
        <route edges="E2D2 D2C2 C2B2 B2B1 B1B4"/>
    </vehicle>
    <vehicle id="22" type="car" depart="22">
        <route edges="C3B3 B3B2 B2C2 C2D2 D2E2 E2F2 F2F1 F1E1"/>
    </vehicle>
    <vehicle id="23" type="car" depart="23">
        <route edges="C4C3 C3D3 D3D2 D2C2"/>
    </vehicle>
    <vehicle id="24" type="car" depart="24">
        <route edges="F1E1 E1D1 D1C1 C1C4 C4B4"/>
    </vehicle>
    <vehicle id="25" type="car" depart="25">
        <route edges="D3D2 D2E2"/>
    </vehicle>
    <vehicle id="26" type="car" depart="26">
        <route edges="F3F2 F2E2 E2D2 D2C2 C2B2 B2B1 B1C1 C1C2"/>
    </vehicle>
    <vehicle id="27" type="car" depart="27">
        <route edges="F1F4 F4E4 E4D4 D4C4 C4B4 B4B1 B1A1 A1B4 B4C4 C4D4 D4E4"/>
    </vehicle>
    <vehicle id="28" type="car" depart="28">
        <route edges="C3B3 B3B2 B2A1 A1B3 B3C3"/>
    </vehicle>
    <vehicle id="29" type="car" depart="29">
        <route edges="B2B3 B3B4 B4C4 C4D4 D4E4 E4E1 E1D1"/>
    </vehicle>
    <vehicle id="30" type="car" depart="30">
        <route edges="C4C1 C1B1 B1B2 B2C2 C2C1"/>
    </vehicle>
    <vehicle id="31" type="car" depart="31">
        <route edges="B1C1 C1D1 D1E1 E1E2 E2D2"/>
    </vehicle>
    <vehicle id="32" type="car" depart="32">
        <route edges="D1D2 D2D3"/>
    </vehicle>
    <vehicle id="33" type="car" depart="33">
        <route edges="B3C3 C3C2 C2C1"/>
    </vehicle>
    <vehicle id="34" type="car" depart="34">
        <route edges="B2A1 A1B4 B4C4 C4C3 C3B3"/>
    </vehicle>
    <vehicle id="35" type="car" depart="35">
        <route edges="D3C3 C3C2"/>
    </vehicle>
    <vehicle id="36" type="car" depart="36">
        <route edges="F2F1 F1E1 E1D1 D1C1 C1B1 B1A1 A1B3 B3C3 C3D3 D3D4"/>
    </vehicle>
    <vehicle id="37" type="car" depart="37">
        <route edges="C3C4 C4C1"/>
    </vehicle>
    <vehicle id="38" type="car" depart="38">
        <route edges="B1B4 B4B3 B3C3 C3D3 D3D4"/>
    </vehicle>
    <vehicle id="39" type="car" depart="39">
        <route edges="B3B2 B2A1 A1B4"/>
    </vehicle>
    <vehicle id="40" type="car" depart="40">
        <route edges="C2B2 B2A1 A1B4 B4B1"/>
    </vehicle>
    <vehicle id="41" type="car" depart="41">
        <route edges="E1F1 F1F2 F2E2 E2D2 D2C2 C2B2 B2A1 A1B3"/>
    </vehicle>
    <vehicle id="42" type="car" depart="42">
        <route edges="F2E2 E2D2 D2C2 C2B2 B2B1 B1A1 A1B2 B2C2 C2D2 D2E2 E2F2 F2F1"/>
    </vehicle>
    <vehicle id="43" type="car" depart="43">
        <route edges="D3D2 D2E2 E2E3"/>
    </vehicle>
    <vehicle id="44" type="car" depart="44">
        <route edges="A1B1 B1B4 B4A1"/>
    </vehicle>
    <vehicle id="45" type="car" depart="45">
        <route edges="F1F2 F2E2"/>
    </vehicle>
    <vehicle id="46" type="car" depart="46">
        <route edges="E3E4 E4D4 D4D1 D1E1 E1E4"/>
    </vehicle>
    <vehicle id="47" type="car" depart="47">
        <route edges="B3A1 A1B4 B4C4 C4D4 D4E4 E4E1"/>
    </vehicle>
    <vehicle id="48" type="car" depart="48">
        <route edges="A1B2 B2B3 B3C3 C3D3 D3E3 E3E2"/>
    </vehicle>
    <vehicle id="49" type="car" depart="49">
        <route edges="B3B2 B2A1 A1B4 B4C4 C4D4 D4D3"/>
    </vehicle>
    <vehicle id="50" type="car" depart="50">
        <route edges="C4D4 D4D1 D1C1 C1B1 B1B4 B4A1"/>
    </vehicle>
    <vehicle id="51" type="car" depart="51">
        <route edges="C2C1 C1D1 D1E1 E1F1 F1F4"/>
    </vehicle>
    <vehicle id="52" type="car" depart="52">
        <route edges="C3C2 C2B2 B2A1 A1B4 B4C4 C4C3"/>
    </vehicle>
    <vehicle id="53" type="car" depart="53">
        <route edges="E4F4 F4F3 F3E3 E3D3 D3C3"/>
    </vehicle>
    <vehicle id="54" type="car" depart="54">
        <route edges="D4C4 C4C1 C1D1 D1E1 E1E4"/>
    </vehicle>
    <vehicle id="55" type="car" depart="55">
        <route edges="A1B1 B1C1 C1D1 D1E1 E1F1 F1F4"/>
    </vehicle>
    <vehicle id="56" type="car" depart="56">
        <route edges="C1C2 C2B2 B2B1 B1B4"/>
    </vehicle>
    <vehicle id="57" type="car" depart="57">
        <route edges="E4E3 E3D3 D3D4 D4C4"/>
    </vehicle>
    <vehicle id="58" type="car" depart="58">
        <route edges="B3B4 B4A1 A1B3 B3C3 C3C4"/>
    </vehicle>
    <vehicle id="59" type="car" depart="59">
        <route edges="C1D1 D1E1"/>
    </vehicle>
    <vehicle id="60" type="car" depart="60">
        <route edges="B1C1 C1C2 C2D2"/>
    </vehicle>
    <vehicle id="61" type="car" depart="61">
        <route edges="F1F4 F4E4 E4D4 D4C4 C4B4 B4B3 B3A1"/>
    </vehicle>
    <vehicle id="62" type="car" depart="62">
        <route edges="D2C2 C2C3 C3D3 D3E3 E3F3 F3F2"/>
    </vehicle>
    <vehicle id="63" type="car" depart="63">
        <route edges="E4E3 E3D3 D3D4 D4D1"/>
    </vehicle>
    <vehicle id="64" type="car" depart="64">
        <route edges="F2E2 E2E1 E1F1"/>
    </vehicle>
    <vehicle id="65" type="car" depart="65">
        <route edges="C2D2 D2D3 D3E3 E3E2"/>
    </vehicle>
    <vehicle id="66" type="car" depart="66">
        <route edges="E1F1 F1F2 F2E2 E2D2 D2C2 C2C3 C3B3"/>
    </vehicle>
    <vehicle id="67" type="car" depart="67">
        <route edges="B2C2 C2C1 C1B1 B1B4 B4C4"/>
    </vehicle>
    <vehicle id="68" type="car" depart="68">
        <route edges="D3E3 E3E2 E2D2 D2C2 C2C1 C1D1"/>
    </vehicle>
    <vehicle id="69" type="car" depart="69">
        <route edges="E3E2 E2D2 D2C2 C2B2 B2A1 A1B4 B4C4 C4C1"/>
    </vehicle>
    <vehicle id="70" type="car" depart="70">
        <route edges="D1E1 E1F1 F1F4 F4E4 E4E1"/>
    </vehicle>
    <vehicle id="71" type="car" depart="71">
        <route edges="B4A1 A1B2 B2C2 C2C1 C1B1"/>
    </vehicle>
    <vehicle id="72" type="car" depart="72">
        <route edges="F4F3 F3E3 E3D3 D3C3 C3C4 C4D4 D4D3"/>
    </vehicle>
    <vehicle id="73" type="car" depart="73">
        <route edges="E2F2 F2F1 F1E1 E1D1 D1D4 D4D3"/>
    </vehicle>
    <vehicle id="74" type="car" depart="74">
        <route edges="B2C2 C2C1 C1B1 B1A1 A1B3"/>
    </vehicle>
    <vehicle id="75" type="car" depart="75">
        <route edges="B2B1 B1C1 C1D1 D1D2"/>
    </vehicle>
    <vehicle id="76" type="car" depart="76">
        <route edges="C3C4 C4B4 B4A1 A1B2 B2C2 C2D2"/>
    </vehicle>
    <vehicle id="77" type="car" depart="77">
        <route edges="C3B3 B3B2 B2A1 A1B3 B3C3 C3D3 D3D2"/>
    </vehicle>
    <vehicle id="78" type="car" depart="78">
        <route edges="E2E3 E3D3 D3C3 C3C2 C2D2 D2D3"/>
    </vehicle>
    <vehicle id="79" type="car" depart="79">
        <route edges="C4C1 C1D1 D1E1 E1F1 F1F4"/>
    </vehicle>
    <vehicle id="80" type="car" depart="80">
        <route edges="B1B4 B4A1 A1B1 B1C1 C1D1 D1E1 E1F1 F1F4"/>
    </vehicle>
    <vehicle id="81" type="car" depart="81">
        <route edges="D1D2 D2D3 D3E3 E3E2 E2D2"/>
    </vehicle>
    <vehicle id="82" type="car" depart="82">
        <route edges="C2C1 C1C4 C4D4 D4D3 D3C3"/>
    </vehicle>
    <vehicle id="83" type="car" depart="83">
        <route edges="E1E2 E2D2 D2C2 C2B2 B2A1 A1B4 B4C4 C4D4 D4E4 E4E1"/>
    </vehicle>
    <vehicle id="84" type="car" depart="84">
        <route edges="E1E2 E2D2 D2C2 C2B2 B2B1 B1A1 A1B2 B2C2 C2D2 D2E2 E2E1"/>
    </vehicle>
    <vehicle id="85" type="car" depart="85">
        <route edges="D1C1 C1B1 B1A1 A1B2 B2B1 B1C1 C1D1"/>
    </vehicle>
    <vehicle id="86" type="car" depart="86">
        <route edges="D4E4 E4E3 E3D3 D3D2"/>
    </vehicle>
    <vehicle id="87" type="car" depart="87">
        <route edges="C4B4 B4B1 B1A1 A1B4 B4C4 C4D4 D4E4 E4E3"/>
    </vehicle>
    <vehicle id="88" type="car" depart="88">
        <route edges="B1B4 B4A1 A1B1"/>
    </vehicle>
    <vehicle id="89" type="car" depart="89">
        <route edges="C2C1 C1B1 B1A1 A1B2 B2B1 B1C1 C1C2"/>
    </vehicle>
    <vehicle id="90" type="car" depart="90">
        <route edges="E2E1 E1D1 D1C1 C1B1"/>
    </vehicle>
    <vehicle id="91" type="car" depart="91">
        <route edges="F1F4 F4E4 E4D4 D4C4 C4B4 B4A1 A1B2 B2C2 C2C3"/>
    </vehicle>
    <vehicle id="92" type="car" depart="92">
        <route edges="F2F3 F3E3 E3D3 D3D2"/>
    </vehicle>
    <vehicle id="93" type="car" depart="93">
        <route edges="A1B3 B3C3 C3D3 D3E3 E3F3 F3F2 F2E2"/>
    </vehicle>
    <vehicle id="94" type="car" depart="94">
        <route edges="C1D1 D1D4 D4E4"/>
    </vehicle>
    <vehicle id="95" type="car" depart="95">
        <route edges="C1D1 D1D2 D2C2 C2C3 C3B3"/>
    </vehicle>
    <vehicle id="96" type="car" depart="96">
        <route edges="C2B2 B2B1 B1A1 A1B2"/>
    </vehicle>
    <vehicle id="97" type="car" depart="97">
        <route edges="F1F4 F4E4 E4D4 D4C4 C4B4 B4B1 B1B2 B2A1"/>
    </vehicle>
    <vehicle id="98" type="car" depart="98">
        <route edges="D2E2 E2E1 E1E4 E4D4"/>
    </vehicle>
    <vehicle id="99" type="car" depart="99">
        <route edges="E4D4 D4C4 C4B4 B4B3 B3C3 C3C4"/>
    </vehicle>
</routes>
